Version 4
SHEET 1 2436 680
WIRE 1440 -320 1232 -320
WIRE 1808 -320 1440 -320
WIRE 1968 -320 1808 -320
WIRE 2432 -320 2000 -320
WIRE 1808 -208 1808 -320
WIRE 2128 -208 1808 -208
WIRE 1440 -192 1440 -320
WIRE 2336 -112 1824 -112
WIRE 2336 -64 2336 -112
WIRE 1440 -48 1440 -112
WIRE 2112 -48 1440 -48
WIRE 928 -32 432 -32
WIRE 288 -16 160 -16
WIRE 416 -16 288 -16
WIRE 736 -16 416 -16
WIRE 752 0 368 0
WIRE 1440 0 1440 -48
WIRE 288 16 288 -16
WIRE 1856 16 1776 16
WIRE 2128 16 2128 -208
WIRE 2128 16 2080 16
WIRE 928 32 928 -32
WIRE 480 48 464 48
WIRE 736 48 736 -16
WIRE 736 48 704 48
WIRE 1856 80 1696 80
WIRE 2112 80 2112 -48
WIRE 2112 80 2080 80
WIRE 2336 80 2336 0
WIRE 288 112 288 96
WIRE 368 112 368 0
WIRE 368 112 288 112
WIRE 480 112 400 112
WIRE 752 112 752 0
WIRE 752 112 704 112
WIRE 1440 128 1440 80
WIRE 1696 128 1696 80
WIRE 1696 128 1440 128
WIRE 160 144 160 -16
WIRE 288 144 288 112
WIRE 1824 144 1824 -112
WIRE 1856 144 1824 144
WIRE 2112 144 2080 144
WIRE 928 160 928 112
WIRE 1024 160 928 160
WIRE 1232 160 1232 -320
WIRE 1232 160 1216 160
WIRE 432 176 432 -32
WIRE 480 176 432 176
WIRE 784 176 704 176
WIRE 1808 208 1808 -208
WIRE 1856 208 1808 208
WIRE 2128 208 2080 208
WIRE 288 240 288 224
WIRE 400 240 400 112
WIRE 400 240 288 240
WIRE 416 240 416 -16
WIRE 480 240 416 240
WIRE 864 240 704 240
WIRE 288 256 288 240
WIRE 400 256 288 256
WIRE 1024 256 928 256
WIRE 1440 256 1440 128
WIRE 1440 256 1216 256
WIRE 2112 256 2112 144
WIRE 2112 256 1440 256
WIRE 288 272 288 256
WIRE 864 272 864 240
WIRE 2128 320 2128 208
WIRE 400 336 400 256
WIRE 784 336 784 176
WIRE 784 336 400 336
WIRE 1440 336 1440 256
WIRE 160 384 160 176
WIRE 288 384 288 336
WIRE 288 384 160 384
WIRE 464 384 464 48
WIRE 464 384 288 384
WIRE 608 384 464 384
WIRE 864 384 864 336
WIRE 864 384 608 384
WIRE 928 384 928 256
WIRE 928 384 864 384
WIRE 608 432 608 384
WIRE 1440 480 1440 400
WIRE 1776 480 1776 16
WIRE 1776 480 1440 480
WIRE 2128 480 2128 384
WIRE 2128 480 1776 480
WIRE 2336 480 2336 160
WIRE 2336 480 2128 480
WIRE 2432 480 2432 -320
WIRE 2432 480 2336 480
WIRE 1440 512 1440 480
FLAG 608 432 0
FLAG 1440 512 0
SYMBOL MiniSyms4\\voltage- 160 160 R0
WINDOW 123 0 0 Left 0
WINDOW 39 0 0 Left 0
SYMATTR InstName V1
SYMATTR Value 12
SYMBOL res 272 0 R0
SYMATTR InstName R1
SYMATTR Value 10k
SYMBOL res 272 128 R0
SYMATTR InstName R2
SYMATTR Value 50k
SYMBOL polcap 272 272 R0
WINDOW 3 24 56 Left 2
SYMATTR Value 0.047µ
SYMATTR InstName C1
SYMATTR Description Capacitor
SYMATTR Type cap
SYMATTR SpiceLine V=16 Irms=35m Rser=2.8 Lser=0
SYMBOL polcap 848 272 R0
WINDOW 3 24 56 Left 2
SYMATTR Value 0.01µ
SYMATTR InstName C2
SYMATTR Description Capacitor
SYMATTR Type cap
SYMATTR SpiceLine V=16 Irms=35m Rser=2.8 Lser=0
SYMBOL Misc\\NE555 592 144 R0
SYMATTR InstName U1
SYMBOL Misc\\NE555 1968 112 R0
SYMATTR InstName U3
SYMBOL polcap 2112 320 R0
WINDOW 3 24 56 Left 2
SYMATTR Value 0.01µ
SYMATTR InstName C4
SYMATTR Description Capacitor
SYMATTR Type cap
SYMATTR SpiceLine V=16 Irms=35m Rser=2.8 Lser=0 mfg="Nichicon" pn="UPR1C100MAH" type="Al electrolytic"
SYMBOL MiniSyms4\\voltage- 1984 -320 R270
WINDOW 0 10 0 VTop 2
WINDOW 3 -10 0 VBottom 2
WINDOW 123 0 0 Left 0
WINDOW 39 0 0 Left 0
SYMATTR InstName V2
SYMATTR Value 12
SYMBOL res 1424 -208 R0
SYMATTR InstName R4
SYMATTR Value 10k
SYMBOL res 1424 -16 R0
SYMATTR InstName R6
SYMATTR Value 50k
SYMBOL polcap 1424 336 R0
WINDOW 3 24 56 Left 2
SYMATTR Value 0.05µ
SYMATTR InstName C3
SYMATTR Description Capacitor
SYMATTR Type cap
SYMATTR SpiceLine V=16 Irms=35m Rser=2.8 Lser=0
SYMBOL polcap 2320 -64 R0
WINDOW 3 24 56 Left 2
SYMATTR Value 100µ
SYMATTR InstName C5
SYMATTR Description Capacitor
SYMATTR Type cap
SYMATTR SpiceLine V=16 Irms=135m Rser=0.8 Lser=0 mfg="Nichicon" pn="UPR1C101MPH" type="Al electrolytic"
SYMBOL res 2320 64 R0
SYMATTR InstName R5
SYMATTR Value 4
SYMBOL res 912 16 R0
SYMATTR InstName R3
SYMATTR Value 220
SYMBOL OptoElec\\Pc357nt 1120 208 R0
SYMATTR InstName U2
TEXT 152 536 Left 2 !.tran 100ms
